; Filename: C:/Users/ulric/Desktop/Stage/Stage_Partie2/citites-pipelines/reseau/Scenario 2\High_Demand.inp
; WNTR: 1.4.0
; Created: 2026-06-22 16:03:53
[TITLE]

[JUNCTIONS]
;ID                      Elevation       Demand Pattern                 
 J1                             58.73   0.18780487805                            ;
 J2                             58.29   0.18780487805                            ;
 J3                             59.22   0.18780487805                            ;
 J4                             60.76   0.18780487805                            ;
 J5                             62.04   0.18780487805                            ;
 J6                             63.03   0.18780487805                            ;
 J7                             62.85   0.18780487805                            ;
 J8                             61.39   0.18780487805                            ;
 J9                             59.76   0.18780487805                            ;
 J10                            58.74   0.18780487805                            ;
 J11                            57.17   0.18780487805                            ;
 J12                            56.55   0.18780487805                            ;
 J13                             58.9   0.18780487805                            ;
 J14                            60.07   0.18780487805                            ;
 J15                            62.03   0.18780487805                            ;
 J16                             63.7   0.18780487805                            ;
 J17                            59.11   0.18780487805                            ;
 J18                            59.42   0.18780487805                            ;
 J19                            60.74   0.18780487805                            ;
 J20                             61.8   0.18780487805                            ;
 J21                            62.43   0.18780487805                            ;
 J22                            62.58   0.18780487805                            ;
 J23                            62.26   0.18780487805                            ;
 J24                            61.65   0.18780487805                            ;
 J25                            60.79   0.18780487805                            ;
 J26                            60.07   0.18780487805                            ;
 J27                            59.67   0.18780487805                            ;
 J28                            60.59   0.18780487805                            ;
 J29                            61.41   0.18780487805                            ;
 J30                            62.39   0.18780487805                            ;
 J31                            63.47   0.18780487805                            ;
 J32                            63.95   0.18780487805                            ;
 J33                            59.85   0.18780487805                            ;
 J34                            61.45   0.18780487805                            ;
 J35                            62.24   0.18780487805                            ;
 J36                             62.5   0.18780487805                            ;
 J37                            62.14   0.18780487805                            ;
 J38                            61.48   0.18780487805                            ;
 J39                            60.91   0.18780487805                            ;
 J40                            60.91   0.18780487805                            ;
 J41                            60.83   0.18780487805                            ;
 J42                            60.94   0.18780487805                            ;
 J43                            61.43   0.18780487805                            ;
 J44                            61.95   0.18780487805                            ;
 J45                            62.12   0.18780487805                            ;
 J46                            62.41   0.18780487805                            ;
 J47                            62.13   0.18780487805                            ;
 J48                            61.85   0.18780487805                            ;
 J49                            61.83   0.18780487805                            ;
 J50                            63.06   0.18780487805                            ;
 J51                            63.49   0.18780487805                            ;
 J52                            63.18   0.18780487805                            ;
 J53                            61.96   0.18780487805                            ;
 J54                            60.83   0.18780487805                            ;
 J55                            60.19   0.18780487805                            ;
 J56                            60.13   0.18780487805                            ;
 J57                            60.43   0.18780487805                            ;
 J58                             60.9   0.18780487805                            ;
 J59                            61.44   0.18780487805                            ;
 J60                            62.05   0.18780487805                            ;
 J61                            62.31   0.18780487805                            ;
 J62                               62   0.18780487805                            ;
 J63                            61.33   0.18780487805                            ;
 J64                            60.66   0.18780487805                            ;
 J65                             63.5   0.18780487805                            ;
 J66                            64.59   0.18780487805                            ;
 J67                            64.96   0.18780487805                            ;
 J68                            63.97   0.18780487805                            ;
 J69                            62.54   0.18780487805                            ;
 J70                            61.35   0.18780487805                            ;
 J71                            59.96   0.18780487805                            ;
 J72                            60.24   0.18780487805                            ;
 J73                            60.24   0.18780487805                            ;
 J74                            60.92   0.18780487805                            ;
 J75                            61.84   0.18780487805                            ;
 J76                            62.37   0.18780487805                            ;
 J77                            62.82   0.18780487805                            ;
 J78                            62.49   0.18780487805                            ;
 J79                            61.85   0.18780487805                            ;
 J80                            61.64   0.18780487805                            ;
 J81                            63.69   0.18780487805                            ;
 J82                            64.98   0.18780487805                            ;
 J83                            65.62   0.18780487805                            ;
 J84                            65.46   0.18780487805                            ;
 J85                            64.76   0.18780487805                            ;
 J86                            62.91   0.18780487805                            ;
 J87                            62.16   0.18780487805                            ;
 J88                             62.5   0.18780487805                            ;
 J89                            62.36   0.18780487805                            ;
 J90                            62.74   0.18780487805                            ;
 J91                            62.98   0.18780487805                            ;
 J92                            63.58   0.18780487805                            ;
 J93                            63.97   0.18780487805                            ;
 J94                            64.03   0.18780487805                            ;
 J95                            64.46   0.18780487805                            ;
 J96                            63.86   0.18780487805                            ;
 J97                            62.33   0.18780487805                            ;
 J98                            63.99   0.18780487805                            ;
 J99                            64.71   0.18780487805                            ;
 J100                           65.49   0.18780487805                            ;
 J101                           65.71   0.18780487805                            ;
 J102                            65.5   0.18780487805                            ;
 J103                           65.06   0.18780487805                            ;
 J104                           64.98   0.18780487805                            ;
 J105                           64.79   0.18780487805                            ;
 J106                           64.67   0.18780487805                            ;
 J107                           64.46   0.18780487805                            ;
 J108                           64.32   0.18780487805                            ;
 J109                           64.39   0.18780487805                            ;
 J110                           64.95   0.18780487805                            ;
 J111                           65.23   0.18780487805                            ;
 J112                           65.44   0.18780487805                            ;
 J113                           60.64   0.18780487805                            ;
 J114                           61.66   0.18780487805                            ;
 J115                            62.9   0.18780487805                            ;
 J116                           63.78   0.18780487805                            ;
 J117                           64.75   0.18780487805                            ;
 J118                           64.68   0.18780487805                            ;
 J119                           64.78   0.18780487805                            ;
 J120                           64.06   0.18780487805                            ;
 J121                           63.44   0.18780487805                            ;
 J122                           63.16   0.18780487805                            ;
 J123                           62.21   0.18780487805                            ;
 J124                           62.27   0.18780487805                            ;
 J125                            62.6   0.18780487805                            ;
 J126                           62.12   0.18780487805                            ;
 J127                           63.14   0.18780487805                            ;
 J128                           63.95   0.18780487805                            ;
 J129                           60.42   0.18780487805                            ;
 J130                            61.1   0.18780487805                            ;
 J131                           61.48   0.18780487805                            ;
 J132                           62.35   0.18780487805                            ;
 J133                           62.29   0.18780487805                            ;
 J134                           61.27   0.18780487805                            ;
 J135                           61.41   0.18780487805                            ;
 J136                           59.93   0.18780487805                            ;
 J137                           59.76   0.18780487805                            ;
 J138                           58.94   0.18780487805                            ;
 J139                           58.21   0.18780487805                            ;
 J140                           58.81   0.18780487805                            ;
 J141                           57.74   0.18780487805                            ;
 J142                           58.55   0.18780487805                            ;
 J143                           58.89   0.18780487805                            ;
 J144                           58.94   0.18780487805                            ;
 J145                           60.61   0.18780487805                            ;
 J146                           60.48   0.18780487805                            ;
 J147                           60.76   0.18780487805                            ;
 J148                           58.98   0.18780487805                            ;
 J149                           59.01   0.18780487805                            ;
 J150                           58.12   0.18780487805                            ;
 J151                           56.66   0.18780487805                            ;
 J152                            56.5   0.18780487805                            ;
 J153                           56.25   0.18780487805                            ;
 J154                           54.85   0.18780487805                            ;
 J155                           55.17   0.18780487805                            ;
 J156                           53.74   0.18780487805                            ;
 J157                           53.33   0.18780487805                            ;
 J158                           53.84   0.18780487805                            ;
 J159                           55.35   0.18780487805                            ;
 J160                           55.58   0.18780487805                            ;
 J161                           59.23   0.18780487805                            ;
 J162                           58.33   0.18780487805                            ;
 J163                           57.66   0.18780487805                            ;
 J164                            56.9   0.18780487805                            ;
 J165                           54.44   0.18780487805                            ;
 J166                            53.1   0.18780487805                            ;
 J167                           52.64   0.18780487805                            ;
 J168                           52.64   0.18780487805                            ;
 J169                           53.26   0.18780487805                            ;
 J170                           53.11   0.18780487805                            ;
 J171                           52.76   0.18780487805                            ;
 J172                           52.15   0.18780487805                            ;
 J173                           51.91   0.18780487805                            ;
 J174                           51.93   0.18780487805                            ;
 J175                           52.58   0.18780487805                            ;
 J176                            53.6   0.18780487805                            ;
 J177                            57.8   0.18780487805                            ;
 J178                           57.04   0.18780487805                            ;
 J179                           55.42   0.18780487805                            ;
 J180                           53.79   0.18780487805                            ;
 J181                           52.67   0.18780487805                            ;
 J182                           52.43   0.18780487805                            ;
 J183                           52.41   0.18780487805                            ;
 J184                           53.21   0.18780487805                            ;
 J185                           55.06   0.18780487805                            ;
 J186                           55.42   0.18780487805                            ;
 J187                           54.64   0.18780487805                            ;
 J188                           55.22   0.18780487805                            ;
 J189                           53.41   0.18780487805                            ;
 J190                           53.54   0.18780487805                            ;
 J191                           53.76   0.18780487805                            ;
 J192                           54.98   0.18780487805                            ;
 J193                           58.24   0.18780487805                            ;
 J194                           57.27   0.18780487805                            ;
 J195                           55.75   0.18780487805                            ;
 J196                            54.7   0.18780487805                            ;
 J197                           53.75   0.18780487805                            ;
 J198                           53.98   0.18780487805                            ;
 J199                           54.94   0.18780487805                            ;
 J200                           56.62   0.18780487805                            ;
 J201                           59.67   0.18780487805                            ;
 J202                           59.82   0.18780487805                            ;
 J203                           59.63   0.18780487805                            ;
 J204                            59.3   0.18780487805                            ;
 J205                           57.17   0.18780487805                            ;
 J206                           56.26   0.18780487805                            ;
 J207                           56.62   0.18780487805                            ;
 J208                            57.4   0.18780487805                            ;
 J209                           60.56   0.18780487805                            ;
 J210                           59.41   0.18780487805                            ;
 J211                           58.07   0.18780487805                            ;
 J212                           56.53   0.18780487805                            ;
 J213                           55.85   0.18780487805                            ;
 J214                           56.43   0.18780487805                            ;
 J215                           57.76   0.18780487805                            ;
 J216                           59.48   0.18780487805                            ;
 J217                           61.64   0.18780487805                            ;
 J218                           62.59   0.18780487805                            ;
 J219                            62.2   0.18780487805                            ;
 J220                           61.17   0.18780487805                            ;
 J221                           59.11   0.18780487805                            ;
 J222                           57.59   0.18780487805                            ;
 J223                           57.28   0.18780487805                            ;
 J224                           58.22   0.18780487805                            ;
 J225                           62.72   0.18780487805                            ;
 J226                           61.13   0.18780487805                            ;
 J227                           60.29   0.18780487805                            ;
 J228                           58.39   0.18780487805                            ;
 J229                           57.47   0.18780487805                            ;
 J230                           57.56   0.18780487805                            ;
 J231                           58.75   0.18780487805                            ;
 J232                           59.71   0.18780487805                            ;
 J233                           61.39   0.18780487805                            ;
 J234                            62.6   0.18780487805                            ;
 J235                           61.34   0.18780487805                            ;
 J236                           60.79   0.18780487805                            ;
 J237                           59.27   0.18780487805                            ;
 J238                            58.3   0.18780487805                            ;
 J239                           58.31   0.18780487805                            ;
 J240                           58.75   0.18780487805                            ;
 J241                           63.98   0.18780487805                            ;
 J242                           63.44   0.18780487805                            ;
 J243                           62.78   0.18780487805                            ;
 J244                           60.37   0.18780487805                            ;
 J245                           59.42   0.18780487805                            ;
 J246                           58.02   0.18780487805                            ;
 J247                            57.4   0.18780487805                            ;
 J248                           57.41   0.18780487805                            ;
 J249                           58.52   0.18780487805                            ;
 J250                           58.53   0.18780487805                            ;
 J251                           58.68   0.18780487805                            ;
 J252                           58.15   0.18780487805                            ;
 J253                           57.84   0.18780487805                            ;
 J254                            58.3   0.18780487805                            ;
 J255                           59.03   0.18780487805                            ;
 J256                           60.55   0.18780487805                            ;
 J257                           64.03   0.18780487805                            ;
 J258                           52.42   0.18780487805                            ;
 J259                           57.96   0.18780487805                            ;
 J260                           62.34   0.18780487805                            ;
 J261                           63.16   0.18780487805                            ;
 J262                           62.93   0.18780487805                            ;
 J263                            62.3   0.18780487805                            ;
 J264                           59.98   0.18780487805                            ;
 J265                           65.08   0.18780487805                            ;
 J266                           59.68   0.18780487805                            ;
 J267                            63.1   0.18780487805                            ;
 J268                           59.46   0.18780487805                            ;
 J269                            61.2   0.18780487805                            ;
 J270                            57.2   0.18780487805                            ;
 J271                           62.04   0.18780487805                            ;
 J272                           61.96   0.18780487805                            ;
 J273                            59.3   0.18780487805                            ;
 J274                           62.71   0.18780487805                            ;
 J275                           64.48   0.18780487805                            ;
 J276                           63.09   0.18780487805                            ;
 J277                           63.85   0.18780487805                            ;
 J278                           64.34   0.18780487805                            ;
 J279                           61.86   0.18780487805                            ;
 J280                           61.35   0.18780487805                            ;
 J281                           61.34   0.18780487805                            ;
 J282                           55.34   0.18780487805                            ;
 J283                           58.69   0.18780487805                            ;
 J284                           57.11   0.18780487805                            ;
 J285                           64.75   0.18780487805                            ;
 J286                           62.37   0.18780487805                            ;
 J287                           60.21   0.18780487805                            ;
 J288                            61.8   0.18780487805                            ;
 J289                           59.86   0.18780487805                            ;
 J290                           59.32   0.18780487805                            ;
 J291                           61.65   0.18780487805                            ;
 J292                           60.26   0.18780487805                            ;
 J293                           59.92   0.18780487805                            ;
 J294                           58.27   0.18780487805                            ;
 J295                           56.19   0.18780487805                            ;
 J296                           64.31   0.18780487805                            ;
 J297                           63.81   0.18780487805                            ;
 J298                           61.11   0.18780487805                            ;
 J299                           60.49   0.18780487805                            ;
 J300                           52.36   0.18780487805                            ;
 J301                           60.68   0.18780487805                            ;
 J302                           57.37   0.18780487805                            ;
 J303                           55.44   0.18780487805                            ;
 J304                            58.4   0.18780487805                            ;
 J305                           64.41   0.18780487805                            ;
 J306                           58.02   0.18780487805                            ;
 J307                           62.01   0.18780487805                            ;
 J308                           61.19   0.18780487805                            ;
 J309                           60.74   0.18780487805                            ;
 J310                            54.4   0.18780487805                            ;
 J311                           63.08   0.18780487805                            ;
 J312                           57.43   0.18780487805                            ;
 J313                           57.27   0.18780487805                            ;
 J314                           53.93   0.18780487805                            ;
 J315                           59.37   0.18780487805                            ;
 J316                           60.42   0.18780487805                            ;
 J317                            57.9   0.18780487805                            ;
 J318                           61.29   0.18780487805                            ;
 J319                           57.89   0.18780487805                            ;
 J320                           62.57   0.18780487805                            ;
 J321                           63.71   0.18780487805                            ;
 J322                           63.33   0.18780487805                            ;
 J323                           59.81   0.18780487805                            ;
 J324                           54.96   0.18780487805                            ;
 J325                            58.6   0.18780487805                            ;
 J326                           59.52   0.18780487805                            ;
 J327                           61.06   0.18780487805                            ;
 J328                           60.06   0.18780487805                            ;
 J329                           56.77   0.18780487805                            ;
 J330                           58.23   0.18780487805                            ;
 J331                           65.15   0.18780487805                            ;
 J332                           61.33   0.18780487805                            ;
 J333                           57.51   0.18780487805                            ;
 J334                            52.7   0.18780487805                            ;
 J335                           64.44   0.18780487805                            ;
 J336                           64.89   0.18780487805                            ;
 J337                           55.44   0.18780487805                            ;
 J338                           62.18   0.18780487805                            ;
 J339                           61.03   0.18780487805                            ;
 J340                           64.24   0.18780487805                            ;
 J341                           55.32   0.18780487805                            ;
 J342                           65.65   0.18780487805                            ;
 J343                           61.06   0.18780487805                            ;
 J344                           55.65   0.18780487805                            ;
 J345                           59.96   0.18780487805                            ;
 J346                           52.39   0.18780487805                            ;
 J347                           60.59   0.18780487805                            ;
 J348                           52.15   0.18780487805                            ;
 J349                            61.2   0.18780487805                            ;
 J350                           63.64   0.18780487805                            ;
 J351                            56.3   0.18780487805                            ;
 J352                           60.74   0.18780487805                            ;
 J353                           52.61   0.18780487805                            ;
 J354                           54.35   0.18780487805                            ;
 J355                           58.03   0.18780487805                            ;
 J356                           59.85   0.18780487805                            ;
 J357                           58.45   0.18780487805                            ;
 J358                           52.54   0.18780487805                            ;