; Filename: C:/Users/ulric/Desktop/Stage/Stage_Partie2/Scenarios/Scenario_2\High_Demand.inp
; WNTR: 1.4.0
; Created: 2026-06-22 15:26:20
[TITLE]

[JUNCTIONS]
;ID                      Elevation       Demand Pattern                 
 J1                             65.83               0                            ;
 J2                             69.27               0                            ;
 J3                             82.28               0                            ;
 J4                             91.29               0                            ;
 J5                             93.12               0                            ;
 J6                              78.5               0                            ;
 J7                             65.13               0                            ;
 J8                             60.98               0                            ;
 J9                             67.08               0                            ;
 J10                            82.92               0                            ;
 J11                            95.86               0                            ;
 J12                            71.97               0                            ;
 J13                            79.16               0                            ;
 J14                            85.75               0                            ;
 J15                             89.8               0                            ;
 J16                             88.2               0                            ;
 J17                            81.99               0                            ;
 J18                            78.66               0                            ;
 J19                            78.61               0                            ;
 J20                            87.55               0                            ;
 J21                            93.91               0                            ;
 J22                            98.17               0                            ;
 J23                            85.95               0                            ;
 J24                            96.17               0                            ;
 J25                             96.4               0                            ;
 J26                            83.73               0                            ;
 J27                            76.24               0                            ;
 J28                            75.41               0                            ;
 J29                             80.3               0                            ;
 J30                             85.9               0                            ;
 J31                            89.94               0                            ;
 J32                            86.62               0                            ;
 J33                            80.53               0                            ;
 J34                            95.93               0                            ;
 J35                           109.35               0                            ;
 J36                           107.56               0                            ;
 J37                            92.29               0                            ;
 J38                             81.4               0                            ;
 J39                            82.22               0                            ;
 J40                            85.58               0                            ;
 J41                            91.22               0                            ;
 J42                            99.61               0                            ;
 J43                            94.17               0                            ;
 J44                            94.06               0                            ;
 J45                            90.53               0                            ;
 J46                           107.76               0                            ;
 J47                           111.87               0                            ;
 J48                           112.06               0                            ;
 J49                           103.71               0                            ;
 J50                           106.23               0                            ;
 J51                           104.69               0                            ;
 J52                           103.96               0                            ;
 J53                           105.96               0                            ;
 J54                           107.64               0                            ;
 J55                            109.9               0                            ;
 J56                            77.39               0                            ;
 J57                            87.79               0                            ;
 J58                            93.98               0                            ;
 J59                           100.69               0                            ;
 J60                            99.26               0                            ;
 J61                            98.34               0                            ;
 J62                            91.53               0                            ;
 J63                            79.36               0                            ;
 J64                            70.55               0                            ;
 J65                            79.59               0                            ;
 J66                            83.99               0                            ;
 J67                            78.03               0                            ;
 J68                            79.46               0                            ;
 J69                            76.47               0                            ;
 J70                             61.6               0                            ;
 J71                            59.91               0                            ;
 J72                             60.9               0                            ;
 J73                            55.12               0                            ;
 J74                            46.31               0                            ;
 J75                            45.73               0                            ;
 J76                            48.74               0                            ;
 J77                            56.48               0                            ;
 J78                            68.67               0                            ;
 J79                            60.22               0                            ;
 J80                            42.31               0                            ;
 J81                             32.4               0                            ;
 J82                            27.05               0                            ;
 J83                            28.65               0                            ;
 J84                            30.36               0                            ;
 J85                            27.67               0                            ;
 J86                            23.64               0                            ;
 J87                            23.32               0                            ;
 J88                            32.78               0                            ;
 J89                            60.46               0                            ;
 J90                            48.08               0                            ;
 J91                            37.04               0                            ;
 J92                            35.42               0                            ;
 J93                            45.19               0                            ;
 J94                            45.84               0                            ;
 J95                            68.91               0                            ;
 J96                            68.23               0                            ;
 J97                            49.38               0                            ;
 J98                            49.79               0                            ;
 J99                            57.58               0                            ;
 J100                           80.93               0                            ;
 J101                           68.97               0                            ;
 J102                           52.78               0                            ;
 J103                           51.29               0                            ;
 J104                            63.8               0                            ;
 J105                           80.13               0                            ;
 J106                           93.18               0                            ;
 J107                           84.84               0                            ;
 J108                           74.04               0                            ;
 J109                           60.37               0                            ;
 J110                           59.87               0                            ;
 J111                            96.3               0                            ;
 J112                           93.73               0                            ;
 J113                           73.12               0                            ;
 J114                           63.91               0                            ;
 J115                           59.66               0                            ;
 J116                           67.82               0                            ;
 J117                           74.03               0                            ;
 J118                           64.89               0                            ;
 J119                           62.52               0                            ;
 J120                           64.01               0                            ;
 J121                           73.02               0                            ;
 J122                           57.97               0                            ;
 J123                           43.38               0                            ;
 J124                           78.99               0                            ;
 J125                           64.66               0                            ;
 J126                           95.64               0                            ;
 J127                           50.18               0                            ;
 J128                          100.76               0                            ;
 J129                           43.75               0                            ;
 J130                           79.82               0                            ;
 J131                           83.68               0                            ;
 J132                            67.9               0                            ;
 J133                           89.88               0                            ;
 J134                           85.79               0                            ;
 J135                           78.77               0                            ;
 J136                           45.15               0                            ;
 J137                           79.57               0                            ;
 J138                           62.61               0                            ;
 J139                           96.67               0                            ;
 J140                          104.39               0                            ;
 J141                           75.76               0                            ;
 J142                           82.75               0                            ;
 J143                           61.04               0                            ;
 J144                           58.75               0                            ;
 J145                           81.13               0                            ;
 J146                           58.38               0                            ;
 J147                           85.53               0                            ;
 J148                           67.12               0                            ;
 J149                           84.64               0                            ;
 J150                           22.63               0                            ;
 J151                           89.43               0                            ;
 J152                           76.28               0                            ;
 J153                           88.61               0                            ;
 J154                           83.71               0                            ;
 J155                           93.14               0                            ;
 J156                            88.1               0                            ;
 J157                           38.48               0                            ;
 J158                           73.85               0                            ;
 J159                          109.96               0                            ;
 J160                           90.49               0                            ;
 J161                            29.4               0                            ;
 J162                           79.82               0                            ;
 J163                           64.81               0                            ;
 J164                           97.25               0                            ;
 J165                          105.68               0                            ;
 J166                            88.2               0                            ;
 J167                           50.44               0                            ;
 J168                           63.29               0                            ;
 J169                           70.16               0                            ;
 J170                            86.6               0                            ;
 J171                           73.76               0                            ;
 J172                           83.68               0                            ;
 J173                          101.23               0                            ;
 J174                            80.9               0                            ;
 J175                            62.8               0                            ;
 J176                           60.19               0                            ;
 J177                           58.31               0                            ;
 J178                          109.72               0                            ;
 J179                            57.8               0                            ;
 J180                           98.16               0                            ;
 J181                           72.89               0                            ;
 J182                           40.94               0                            ;
 J183                           44.83               0                            ;
 J184                          105.37               0                            ;
 J185                           39.83               0                            ;
 J186                           83.01               0                            ;
 J187                           78.15               0                            ;
 J188                           91.46               0                            ;
 J189                            89.7               0                            ;
 J190                           71.59               0                            ;
 J191                           79.02               0                            ;
 M1                             56.76           0.007                            ;
 M2                             41.08           0.007                            ;
 M3                             77.99           0.007                            ;
 M4                             62.11           0.007                            ;
 M5                             99.69           0.007                            ;
 M6                             55.54           0.007                            ;
 M7                            105.83           0.007                            ;
 M8                             44.68           0.007                            ;
 M9                             81.72           0.007                            ;
 M10                            84.22           0.007                            ;
 M11                            73.61           0.007                            ;
 M12                            88.68           0.007                            ;
 M13                            83.56           0.007                            ;
 M14                            78.83           0.007                            ;
 M15                            52.43           0.007                            ;
 M16                            78.64           0.007                            ;
 M17                            65.96           0.007                            ;
 M18                            98.37           0.007                            ;
 M19                           101.87           0.007                            ;
 M20                             71.8           0.007                            ;
 M21                            85.11           0.007                            ;
 M22                            62.06           0.007                            ;
 M23                            54.43           0.007                            ;
 M24                            82.38           0.007                            ;
 M25                            58.14           0.007                            ;
 M26                            94.96           0.007                            ;
 M27                            71.29           0.007                            ;
 M28                             80.6           0.007                            ;
 M29                            26.62           0.007                            ;
 M30                            86.32           0.007                            ;
 M31                            74.54           0.007                            ;
 M32                            88.31           0.007                            ;
 M33                            79.33           0.007                            ;
 M34                            92.53           0.007                            ;
 M35                            88.43           0.007                            ;
 M36                            45.51           0.007                            ;
 M37                            85.66           0.007                            ;
 M38                           110.74           0.007                            ;
 M39                            97.63           0.007                            ;
 M40                            29.42           0.007                            ;
 M41                            88.08           0.007                            ;
 M42                            62.07           0.007                            ;
 M43                            97.97           0.007                            ;
 M44                           105.15           0.007                            ;
 M45                            83.54           0.007                            ;
 M46                            46.99           0.007                            ;
 M47                            54.56           0.007                            ;
 M48                            67.28           0.007                            ;
 M49                            85.13           0.007                            ;
 M50                            71.29           0.007                            ;
 M51                            84.24           0.007                            ;
 M52                            97.67           0.007                            ;
 M53                            80.08           0.007                            ;
 M54                            64.77           0.007                            ;
 M55                            72.72           0.007                            ;
 M56                            46.34           0.007                            ;
 M57                           110.72           0.007                            ;
 M58                            56.32           0.007                            ;
 M59                            104.8           0.007                            ;
 M60                            71.12           0.007                            ;
 M61                            46.79           0.007                            ;
 M62                            56.49           0.007                            ;
 M63                           105.52           0.007                            ;
 M64                            42.92           0.007                            ;
 M65                            83.57           0.007                            ;
 M66                            73.09           0.007                            ;
 M67                            96.79           0.007                            ;
 M68                            88.95           0.007                            ;
 M69                            58.08           0.007                            ;
 M70                            77.31           0.007                            ;

[RESERVOIRS]
;ID                                   Head                  Pattern
 C1                            131.65                            ;

[TANKS]
;ID                              Elevation           Init Level            Min Level            Max Level             Diameter           Min Volume Volume Curve         Overflow            

[PIPES]
;ID                   Node1                Node2                              Length             Diameter            Roughness           Minor Loss               Status
 P1                   J1                   J12                              7.4             175             130               0                 Open   ;
 P2                   J1                   J163                             7.4             175             130               0                 Open   ;
 P3                   J2                   J13                              7.4             175             130               0                 Open   ;
 P4                   J2                   J163                             7.4             175             130               0                 Open   ;
 P5                   J3                   J154                             7.4             175             130               0                 Open   ;
 P6                   J4                   J15                              7.4             175             130               0                 Open   ;
 P7                   J4                   J5                               7.4             175             130               0                 Open   ;
 P8                   J5                   J16                              7.4             175             130               0                 Open   ;
 P9                   J5                   J6                               7.4             175             130               0                 Open   ;
 P10                  J6                   J17                              7.4             175             130               0                 Open   ;
 P11                  J7                   J181                             7.4             175             130               0                 Open   ;
 P12                  J8                   J19                              7.4             175             130               0                 Open   ;
 P13                  J8                   J9                               7.4             175             130               0                 Open   ;
 P14                  J9                   J10                              7.4             175             130               0                 Open   ;
 P15                  J9                   J137                             7.4             175             130               0                 Open   ;
 P16                  J10                  J21                              7.4             175             130               0                 Open   ;
 P17                  J10                  J160                             7.4             175             130               0                 Open   ;
 P18                  J11                  J22                              7.4             175             130               0                 Open   ;
 P19                  J11                  J160                             7.4             175             130               0                 Open   ;
 P20                  J12                  J23                              7.4             175             130               0                 Open   ;
 P21                  J12                  J141                             7.4             175             130               0                 Open   ;
 P22                  J13                  J14                              7.4             175             130               0                 Open   ;
 P23                  J13                  J141                             7.4             175             130               0                 Open   ;
 P24                  J13                  J156                             7.4             175             130               0                 Open   ;
 P25                  J14                  J25                              7.4             175             130               0                 Open   ;
 P26                  J14                  J15                              7.4             175             130               0                 Open   ;
 P27                  J14                  J154                             7.4             175             130               0                 Open   ;
 P28                  J15                  J151                             7.4             175             130               0                 Open   ;
 P29                  J15                  J170                             7.4             175             130               0                 Open   ;
 P30                  J16                  J17                              7.4             175             130               0                 Open   ;
 P31                  J16                  J151                             7.4             175             130               0                 Open   ;
 P32                  J17                  J18                              7.4             175             130               0                 Open   ;
 P33                  J17                  J135                             7.4             175             130               0                 Open   ;
 P34                  J18                  J145                             7.4             175             130               0                 Open   ;
 P35                  J18                  J181                             7.4             175             130               0                 Open   ;
 P36                  J18                  J187                             7.4             175             130               0                 Open   ;
 P37                  J19                  J30                              7.4             175             130               0                 Open   ;
 P38                  J19                  J20                              7.4             175             130               0                 Open   ;
 P39                  J19                  J187                             7.4             175             130               0                 Open   ;
 P40                  J20                  J133                             7.4             175             130               0                 Open   ;
 P41                  J20                  J137                             7.4             175             130               0                 Open   ;
 P42                  J21                  J139                             7.4             175             130               0                 Open   ;
 P43                  J21                  J189                             7.4             175             130               0                 Open   ;
 P44                  J22                  J33                              7.4             175             130               0                 Open   ;
 P45                  J22                  J139                             7.4             175             130               0                 Open   ;
 P46                  J23                  J188                             7.4             175             130               0                 Open   ;
 P47                  J24                  J35                              7.4             175             130               0                 Open   ;
 P48                  J24                  J25                              7.4             175             130               0                 Open   ;
 P49                  J24                  J156                             7.4             175             130               0                 Open   ;