[TITLE]
; Zone=None | Maisons=500 | Chateaux d'eau=2
; Fautes actives : aucune

[JUNCTIONS]
;ID              	Elev        	Demand      	Pattern
 J1              	110.84      	0.0         	                	;  [normal]
 J2              	109.94      	0.0         	                	;  [normal]
 J3              	108.15      	0.0         	                	;  [normal]
 J4              	110.04      	0.0         	                	;  [normal]
 J5              	114.11      	0.0         	                	;  [normal]
 J6              	109.58      	0.0         	                	;  [normal]
 J7              	109.15      	0.0         	                	;  [normal]
 J8              	112.55      	0.0         	                	;  [normal]
 J9              	109.05      	0.0         	                	;  [normal]
 J10             	114.07      	0.0         	                	;  [normal]
 J11             	108.95      	0.0         	                	;  [normal]
 J12             	106.79      	0.0         	                	;  [normal]
 J13             	111.88      	0.0         	                	;  [normal]
 J14             	109.83      	0.0         	                	;  [normal]
 J15             	108.34      	0.0         	                	;  [normal]
 J16             	105.11      	0.0         	                	;  [normal]
 J17             	106.33      	0.0         	                	;  [normal]
 J18             	106.92      	0.0         	                	;  [normal]
 J19             	113.34      	0.0         	                	;  [normal]
 J20             	112.77      	0.0         	                	;  [normal]
 J21             	112.77      	0.0         	                	;  [normal]
 J22             	116.5       	0.0         	                	;  [normal]
 J23             	110.08      	0.0         	                	;  [normal]
 J24             	113.39      	0.0         	                	;  [normal]
 J25             	105.17      	0.0         	                	;  [normal]
 J26             	106.89      	0.0         	                	;  [normal]
 J27             	107.33      	0.0         	                	;  [normal]
 J28             	114.1       	0.0         	                	;  [normal]
 J29             	110.65      	0.0         	                	;  [normal]
 J30             	111.7       	0.0         	                	;  [normal]
 J31             	112.67      	0.0         	                	;  [normal]
 J32             	116.83      	0.0         	                	;  [normal]
 J33             	110.32      	0.0         	                	;  [normal]
 J34             	112.23      	0.0         	                	;  [normal]
 J35             	108.65      	0.0         	                	;  [normal]
 J36             	112.37      	0.0         	                	;  [normal]
 J37             	117.73      	0.0         	                	;  [normal]
 J38             	116.64      	0.0         	                	;  [normal]
 J39             	108.04      	0.0         	                	;  [normal]
 J40             	111.82      	0.0         	                	;  [normal]
 J41             	108.3       	0.0         	                	;  [normal]
 J42             	106.43      	0.0         	                	;  [normal]
 J43             	107.69      	0.0         	                	;  [normal]
 J44             	110.84      	0.0         	                	;  [normal]
 J45             	114.63      	0.0         	                	;  [normal]
 J46             	106.94      	0.0         	                	;  [normal]
 J47             	114.79      	0.0         	                	;  [normal]
 J48             	114.12      	0.0         	                	;  [normal]
 J49             	106.16      	0.0         	                	;  [normal]
 J50             	106.86      	0.0         	                	;  [normal]
 J51             	109.97      	0.0         	                	;  [normal]
 J52             	106.49      	0.0         	                	;  [normal]
 J53             	111.25      	0.0         	                	;  [normal]
 J54             	112.62      	0.0         	                	;  [normal]
 J55             	109.45      	0.0         	                	;  [normal]
 J56             	106.75      	0.0         	                	;  [normal]
 J57             	109.6       	0.0         	                	;  [normal]
 J58             	97.33       	0.0         	                	;  [normal]
 J59             	111.32      	0.0         	                	;  [normal]
 J60             	101.39      	0.0         	                	;  [normal]
 J61             	107.81      	0.0         	                	;  [normal]
 J62             	102.68      	0.0         	                	;  [normal]
 J63             	108.03      	0.0         	                	;  [normal]
 J64             	110.61      	0.0         	                	;  [normal]
 J65             	111.91      	0.0         	                	;  [normal]
 J66             	114.43      	0.0         	                	;  [normal]
 J67             	105.1       	0.0         	                	;  [normal]
 J68             	106.86      	0.0         	                	;  [normal]
 J69             	110.81      	0.0         	                	;  [normal]
 J70             	104.92      	0.0         	                	;  [normal]
 J71             	110.95      	0.0         	                	;  [normal]
 J72             	112.04      	0.0         	                	;  [normal]
 J73             	114.1       	0.0         	                	;  [normal]
 J74             	109.57      	0.0         	                	;  [normal]
 J75             	113.63      	0.0         	                	;  [normal]
 J76             	115.54      	0.0         	                	;  [normal]
 J77             	106.16      	0.0         	                	;  [normal]
 J78             	104.67      	0.0         	                	;  [normal]
 J79             	109.29      	0.0         	                	;  [normal]
 J80             	109.68      	0.0         	                	;  [normal]
 J81             	112.26      	0.0         	                	;  [normal]
 J82             	110.12      	0.0         	                	;  [normal]
 J83             	112.12      	0.0         	                	;  [normal]
 J84             	109.7       	0.0         	                	;  [normal]
 J85             	113.12      	0.0         	                	;  [normal]
 J86             	110.48      	0.0         	                	;  [normal]
 J87             	112.57      	0.0         	                	;  [normal]
 J88             	109.31      	0.0         	                	;  [normal]
 J89             	106.35      	0.0         	                	;  [normal]
 J90             	104.02      	0.0         	                	;  [normal]
 J91             	107.62      	0.0         	                	;  [normal]
 J92             	107.56      	0.0         	                	;  [normal]
 J93             	99.63       	0.0         	                	;  [normal]
 J94             	106.94      	0.0         	                	;  [normal]
 J95             	103.26      	0.0         	                	;  [normal]
 J96             	110.1       	0.0         	                	;  [normal]
 J97             	101.57      	0.0         	                	;  [normal]
 J98             	105.18      	0.0         	                	;  [normal]
 J99             	103.93      	0.0         	                	;  [normal]
 J100            	109.72      	0.0         	                	;  [normal]
 J101            	114.92      	0.0         	                	;  [normal]
 J102            	111.33      	0.0         	                	;  [normal]
 J103            	106.56      	0.0         	                	;  [normal]
 J104            	109.99      	0.0         	                	;  [normal]
 J105            	108.97      	0.0         	                	;  [normal]
 J106            	111.96      	0.0         	                	;  [normal]
 J107            	109.35      	0.0         	                	;  [normal]
 J108            	110.95      	0.0         	                	;  [normal]
 J109            	106.17      	0.0         	                	;  [normal]
 J110            	109.93      	0.0         	                	;  [normal]
 J111            	113.58      	0.0         	                	;  [normal]
 J112            	108.94      	0.0         	                	;  [normal]
 J113            	103.67      	0.0         	                	;  [normal]
 J114            	112.07      	0.0         	                	;  [normal]
 J115            	109.88      	0.0         	                	;  [normal]
 J116            	108.55      	0.0         	                	;  [normal]
 J117            	113.08      	0.0         	                	;  [normal]
 J118            	115.74      	0.0         	                	;  [normal]
 J119            	111.74      	0.0         	                	;  [normal]
 J120            	109.57      	0.0         	                	;  [normal]
 J121            	109.75      	0.0         	                	;  [normal]
 J122            	107.44      	0.0         	                	;  [normal]
 J123            	109.55      	0.0         	                	;  [normal]
 J124            	108.76      	0.0         	                	;  [normal]
 J125            	107.14      	0.0         	                	;  [normal]
 J126            	102.46      	0.0         	                	;  [normal]
 J127            	110.4       	0.0         	                	;  [normal]
 J128            	109.72      	0.0         	                	;  [normal]
 J129            	106.58      	0.0         	                	;  [normal]
 J130            	108.16      	0.0         	                	;  [normal]
 J131            	112.81      	0.0         	                	;  [normal]
 J132            	113.82      	0.0         	                	;  [normal]
 J133            	107.83      	0.0         	                	;  [normal]
 J134            	105.27      	0.0         	                	;  [normal]
 J135            	113.58      	0.0         	                	;  [normal]
 J136            	110.43      	0.0         	                	;  [normal]
 J137            	110.89      	0.0         	                	;  [normal]
 J138            	105.61      	0.0         	                	;  [normal]
 J139            	111.14      	0.0         	                	;  [normal]
 J140            	112.66      	0.0         	                	;  [normal]
 J141            	109.24      	0.0         	                	;  [normal]
 J142            	108.6       	0.0         	                	;  [normal]
 J143            	107.96      	0.0         	                	;  [normal]
 J144            	115.08      	0.0         	                	;  [normal]
 J145            	107.14      	0.0         	                	;  [normal]
 J146            	109.35      	0.0         	                	;  [normal]
 J147            	109.68      	0.0         	                	;  [normal]
 J148            	109.21      	0.0         	                	;  [normal]
 J149            	109.4       	0.0         	                	;  [normal]
 J150            	110.38      	0.0         	                	;  [normal]
 J151            	110.97      	0.0         	                	;  [normal]
 J152            	106.77      	0.0         	                	;  [normal]
 J153            	108.43      	0.0         	                	;  [normal]
 J154            	114.8       	0.0         	                	;  [normal]
 J155            	107.76      	0.0         	                	;  [normal]
 J156            	115.52      	0.0         	                	;  [normal]
 J157            	105.18      	0.0         	                	;  [normal]
 J158            	113.81      	0.0         	                	;  [normal]
 J159            	108.18      	0.0         	                	;  [normal]
 J160            	109.09      	0.0         	                	;  [normal]
 J161            	111.59      	0.0         	                	;  [normal]
 J162            	108.27      	0.0         	                	;  [normal]
 J163            	109.57      	0.0         	                	;  [normal]
 J164            	107.51      	0.0         	                	;  [normal]
 J165            	111.27      	0.0         	                	;  [normal]
 J166            	113.58      	0.0         	                	;  [normal]
 J167            	107.47      	0.0         	                	;  [normal]
 J168            	104.35      	0.0         	                	;  [normal]
 J169            	107.49      	0.0         	                	;  [normal]
 J170            	104.49      	0.0         	                	;  [normal]
 J171            	101.86      	0.0         	                	;  [normal]
 J172            	105.31      	0.0         	                	;  [normal]
 J173            	112.24      	0.0         	                	;  [normal]
 J174            	111.66      	0.0         	                	;  [normal]
 J175            	108.66      	0.0         	                	;  [normal]
 J176            	113.39      	0.0         	                	;  [normal]
 J177            	111.54      	0.0         	                	;  [normal]
 J178            	105.34      	0.0         	                	;  [normal]
 J179            	116.02      	0.0         	                	;  [normal]
 J180            	108.62      	0.0         	                	;  [normal]
 J181            	103.48      	0.0         	                	;  [normal]
 J182            	108.62      	0.0         	                	;  [normal]
 J183            	111.06      	0.0         	                	;  [normal]
 J184            	106.96      	0.0         	                	;  [normal]
 J185            	110.07      	0.0         	                	;  [normal]
 J186            	117.63      	0.0         	                	;  [normal]
 J187            	108.91      	0.0         	                	;  [normal]
 J188            	110.92      	0.0         	                	;  [normal]
 J189            	109.56      	0.0         	                	;  [normal]
 J190            	111.33      	0.0         	                	;  [normal]
 J191            	106.82      	0.0         	                	;  [normal]
 J192            	105.39      	0.0         	                	;  [normal]
 J193            	107.4       	0.0         	                	;  [normal]
 J194            	105.28      	0.0         	                	;  [normal]
 J195            	106.86      	0.0         	                	;  [normal]
 J196            	107.38      	0.0         	                	;  [normal]
 J197            	105.86      	0.0         	                	;  [normal]
 J198            	107.82      	0.0         	                	;  [normal]
 J199            	108.08      	0.0         	                	;  [normal]
 J200            	112.81      	0.0         	                	;  [normal]
 J201            	110.28      	0.0         	                	;  [normal]
 J202            	113.64      	0.0         	                	;  [normal]
 J203            	105.01      	0.0         	                	;  [normal]
 J204            	110.63      	0.0         	                	;  [normal]
 J205            	107.49      	0.0         	                	;  [normal]
 J206            	106.34      	0.0         	                	;  [normal]
 J207            	108.78      	0.0         	                	;  [normal]
 J208            	112.64      	0.0         	                	;  [normal]
 J209            	110.26      	0.0         	                	;  [normal]
 J210            	111.66      	0.0         	                	;  [normal]
 J211            	108.41      	0.0         	                	;  [normal]
 J212            	109.78      	0.0         	                	;  [normal]
 J213            	104.41      	0.0         	                	;  [normal]
 J214            	115.43      	0.0         	                	;  [normal]
 J215            	107.67      	0.0         	                	;  [normal]
 J216            	110.46      	0.0         	                	;  [normal]
 J217            	107.43      	0.0         	                	;  [normal]
 J218            	117.3       	0.0         	                	;  [normal]
 J219            	105.1       	0.0         	                	;  [normal]
 J220            	106.46      	0.0         	                	;  [normal]
 J221            	111.32      	0.0         	                	;  [normal]
 J222            	112.98      	0.0         	                	;  [normal]
 J223            	108.12      	0.0         	                	;  [normal]
 J224            	109.89      	0.0         	                	;  [normal]
 J225            	116.36      	0.0         	                	;  [normal]
 J226            	108.72      	0.0         	                	;  [normal]
 J227            	108.87      	0.0         	                	;  [normal]
 J228            	116.61      	0.0         	                	;  [normal]
 J229            	112.84      	0.0         	                	;  [normal]
 J230            	107.84      	0.0         	                	;  [normal]
 J231            	112.17      	0.0         	                	;  [normal]
 J232            	106.51      	0.0         	                	;  [normal]
 J233            	107.79      	0.0         	                	;  [normal]
 J234            	109.88      	0.0         	                	;  [normal]
 J235            	107.07      	0.0         	                	;  [normal]
 J236            	103.96      	0.0         	                	;  [normal]
 J237            	117.47      	0.0         	                	;  [normal]
 J238            	108.75      	0.0         	                	;  [normal]
 J239            	105.1       	0.0         	                	;  [normal]
 J240            	108.98      	0.0         	                	;  [normal]
 J241            	110.53      	0.0         	                	;  [normal]
 J242            	106.47      	0.0         	                	;  [normal]
 J243            	110.34      	0.0         	                	;  [normal]
 J244            	111.88      	0.0         	                	;  [normal]
 J245            	112.22      	0.0         	                	;  [normal]
 J246            	109.37      	0.0         	                	;  [normal]
 J247            	112.9       	0.0         	                	;  [normal]
 J248            	109.1       	0.0         	                	;  [normal]
 J249            	110.86      	0.0         	                	;  [normal]
 J250            	109.31      	0.0         	                	;  [normal]
 J251            	111.09      	0.0         	                	;  [normal]
 J252            	110.99      	0.0         	                	;  [normal]
 J253            	108.32      	0.0         	                	;  [normal]
 J254            	113.59      	0.0         	                	;  [normal]
 J255            	113.32      	0.0         	                	;  [normal]
 J256            	113.94      	0.0         	                	;  [normal]
 J257            	104.28      	0.0         	                	;  [normal]
 J258            	112.42      	0.0         	                	;  [normal]
 J259            	115.64      	0.0         	                	;  [normal]
 J260            	104.99      	0.0         	                	;  [normal]
 J261            	109.71      	0.0         	                	;  [normal]
 J262            	107.22      	0.0         	                	;  [normal]
 J263            	115.14      	0.0         	                	;  [normal]
 J264            	108.53      	0.0         	                	;  [normal]
 J265            	118.66      	0.0         	                	;  [normal]
 J266            	108.8       	0.0         	                	;  [normal]
 J267            	112.72      	0.0         	                	;  [normal]
 J268            	111.92      	0.0         	                	;  [normal]
 J269            	108.35      	0.0         	                	;  [normal]
 J270            	109.0       	0.0         	                	;  [normal]
 J271            	109.34      	0.0         	                	;  [normal]
 J272            	110.11      	0.0         	                	;  [normal]
 J273            	114.91      	0.0         	                	;  [normal]
 J274            	108.81      	0.0         	                	;  [normal]
 J275            	106.5       	0.0         	                	;  [normal]
 J276            	113.32      	0.0         	                	;  [normal]
 J277            	106.32      	0.0         	                	;  [normal]
 J278            	111.93      	0.0         	                	;  [normal]
 J279            	107.15      	0.0         	                	;  [normal]
 J280            	113.99      	0.0         	                	;  [normal]
 J281            	109.15      	0.0         	                	;  [normal]
 J282            	105.59      	0.0         	                	;  [normal]
 J283            	101.93      	0.0         	                	;  [normal]
 J284            	110.61      	0.0         	                	;  [normal]
 J285            	105.48      	0.0         	                	;  [normal]
 J286            	113.35      	0.0         	                	;  [normal]
 J287            	105.71      	0.0         	                	;  [normal]
 J288            	111.42      	0.0         	                	;  [normal]
 J289            	115.39      	0.0         	                	;  [normal]
 J290            	107.98      	0.0         	                	;  [normal]
 J291            	109.6       	0.0         	                	;  [normal]
 J292            	111.77      	0.0         	                	;  [normal]
 J293            	107.1       	0.0         	                	;  [normal]
 J294            	108.52      	0.0         	                	;  [normal]
 J295            	105.8       	0.0         	                	;  [normal]
 J296            	114.76      	0.0         	                	;  [normal]
 J297            	116.78      	0.0         	                	;  [normal]
 J298            	110.78      	0.0         	                	;  [normal]
 J299            	107.55      	0.0         	                	;  [normal]
 J300            	109.37      	0.0         	                	;  [normal]
 J301            	110.22      	0.0         	                	;  [normal]
 J302            	111.89      	0.0         	                	;  [normal]
 J303            	112.83      	0.0         	                	;  [normal]
 J304            	113.44      	0.0         	                	;  [normal]
 J305            	109.87      	0.0         	                	;  [normal]
 J306            	108.31      	0.0         	                	;  [normal]
 J307            	117.25      	0.0         	                	;  [normal]
 J308            	112.12      	0.0         	                	;  [normal]
 J309            	111.9       	0.0         	                	;  [normal]
 J310            	111.15      	0.0         	                	;  [normal]
 J311            	108.12      	0.0         	                	;  [normal]
 J312            	106.79      	0.0         	                	;  [normal]
 J313            	117.88      	0.0         	                	;  [normal]
 J314            	108.07      	0.0         	                	;  [normal]
 J315            	112.83      	0.0         	                	;  [normal]
 J316            	112.56      	0.0         	                	;  [normal]
 J317            	107.72      	0.0         	                	;  [normal]
 J318            	108.37      	0.0         	                	;  [normal]
 J319            	103.88      	0.0         	                	;  [normal]
 J320            	102.86      	0.0         	                	;  [normal]
 J321            	107.51      	0.0         	                	;  [normal]
 J322            	112.67      	0.0         	                	;  [normal]
 J323            	104.74      	0.0         	                	;  [normal]
 J324            	110.77      	0.0         	                	;  [normal]
 J325            	110.19      	0.0         	                	;  [normal]
 J326            	114.94      	0.0         	                	;  [normal]
 J327            	115.23      	0.0         	                	;  [normal]
 J328            	108.09      	0.0         	                	;  [normal]
 J329            	110.12      	0.0         	                	;  [normal]
 J330            	113.61      	0.0         	                	;  [normal]
 J331            	109.54      	0.0         	                	;  [normal]
 J332            	109.25      	0.0         	                	;  [normal]
 J333            	103.09      	0.0         	                	;  [normal]
 J334            	109.2       	0.0         	                	;  [normal]
 J335            	113.92      	0.0         	                	;  [normal]
 J336            	110.52      	0.0         	                	;  [normal]
 J337            	116.38      	0.0         	                	;  [normal]
 J338            	113.49      	0.0         	                	;  [normal]
 J339            	111.68      	0.0         	                	;  [normal]
 J340            	110.26      	0.0         	                	;  [normal]
 J341            	109.3       	0.0         	                	;  [normal]
 J342            	113.76      	0.0         	                	;  [normal]
 J343            	109.43      	0.0         	                	;  [normal]
 J344            	104.48      	0.0         	                	;  [normal]
 J345            	112.05      	0.0         	                	;  [normal]
 J346            	107.67      	0.0         	                	;  [normal]
 J347            	111.65      	0.0         	                	;  [normal]
 J348            	110.87      	0.0         	                	;  [normal]
 J349            	111.85      	0.0         	                	;  [normal]
 J350            	111.24      	0.0         	                	;  [normal]
 J351            	113.26      	0.0         	                	;  [normal]
 J352            	106.64      	0.0         	                	;  [normal]
 J353            	105.84      	0.0         	                	;  [normal]
 J354            	105.69      	0.0         	                	;  [normal]
 J355            	108.79      	0.0         	                	;  [normal]
 J356            	105.61      	0.0         	                	;  [normal]
 J357            	109.0       	0.0         	                	;  [normal]
 J358            	111.34      	0.0         	                	;  [normal]
 J359            	109.39      	0.0         	                	;  [normal]
 J360            	111.41      	0.0         	                	;  [normal]
 J361            	103.39      	0.0         	                	;  [normal]
 J362            	107.43      	0.0         	                	;  [normal]
 J363            	111.77      	0.0         	                	;  [normal]
 J364            	109.23      	0.0         	                	;  [normal]
 J365            	109.93      	0.0         	                	;  [normal]
 J366            	107.38      	0.0         	                	;  [normal]
 J367            	108.95      	0.0         	                	;  [normal]
 J368            	110.53      	0.0         	                	;  [normal]
 J369            	110.42      	0.0         	                	;  [normal]
 J370            	112.5       	0.0         	                	;  [normal]
 J371            	110.94      	0.0         	                	;  [normal]
 J372            	110.98      	0.0         	                	;  [normal]
 J373            	113.32      	0.0         	                	;  [normal]
 J374            	107.77      	0.0         	                	;  [normal]
 J375            	105.26      	0.0         	                	;  [normal]
 J376            	108.37      	0.0         	                	;  [normal]
 J377            	110.03      	0.0         	                	;  [normal]
 J378            	108.81      	0.0         	                	;  [normal]
 J379            	108.09      	0.0         	                	;  [normal]
 J380            	105.96      	0.0         	                	;  [normal]
 J381            	106.28      	0.0         	                	;  [normal]
 J382            	115.47      	0.0         	                	;  [normal]
 J383            	109.75      	0.0         	                	;  [normal]
 J384            	109.3       	0.0         	                	;  [normal]
 J385            	113.41      	0.0         	                	;  [normal]
 J386            	108.38      	0.0         	                	;  [normal]
 J387            	102.8       	0.0         	                	;  [normal]
 J388            	116.56      	0.0         	                	;  [normal]
 J389            	111.21      	0.0         	                	;  [normal]
 J390            	115.83      	0.0         	                	;  [normal]
 J391            	103.87      	0.0         	                	;  [normal]
 J392            	110.5       	0.0         	                	;  [normal]
 J393            	114.79      	0.0         	                	;  [normal]
 J394            	113.8       	0.0         	                	;  [normal]
 J395            	114.36      	0.0         	                	;  [normal]
 J396            	102.18      	0.0         	                	;  [normal]
 J397            	109.38      	0.0         	                	;  [normal]
 J398            	109.35      	0.0         	                	;  [normal]
 J399            	111.57      	0.0         	                	;  [normal]
 J400            	109.54      	0.0         	                	;  [normal]
 J401            	112.48      	0.0         	                	;  [normal]
 J402            	107.75      	0.0         	                	;  [normal]
 J403            	114.09      	0.0         	                	;  [normal]
 J404            	107.44      	0.0         	                	;  [normal]
 J405            	107.23      	0.0         	                	;  [normal]
 J406            	109.62      	0.0         	                	;  [normal]
 J407            	109.28      	0.0         	                	;  [normal]
 J408            	112.77      	0.0         	                	;  [normal]